  pch.cpp
  dllmain.cpp
  SharedDll.cpp
D:\FAST_New_Programing\AeroDynDll\AeroDynDll\AeroDynDll\SharedDll.cpp(6,7): error C2143: 语法错误: 缺少“;”(在“using namespace”的前面)
  正在生成代码...
