  Start.cpp
  StartExe.vcxproj -> D:\documents_zyy\Projects\AeroDynDll\x64\Debug\StartExe.exe
