  pch.cpp
  SharedDll.cpp
  dllmain.cpp
  正在生成代码...
  AeroDynDll.vcxproj -> D:\documents_zyy\Projects\AeroDynDll\x64\Debug\AeroDynDll.dll
