  StartExe.vcxproj -> E:\Tim_Program\AeroDynDll\AeroDynDll_vs_2022\x64\Release\StartExe.exe
