  Start.cpp
  wavespectral.cpp
E:\Tim_Program\AeroDynDll\AeroDynDll_vs_2022\StartExe\wavespectral.cpp(189,8): warning C4244: “初始化”: 从“__int64”转换到“int”，可能丢失数据
  正在生成代码
  Previous IPDB not found, fall back to full compilation.
  All 140 functions were compiled because no usable IPDB/IOBJ from previous compilation was found.
  已完成代码的生成
  StartExe.vcxproj -> E:\Tim_Program\AeroDynDll\AeroDynDll_vs_2022\x64\Release\StartExe.exe
